This namelist contains various input parameters for HYDRO runs

&RUN
tend=100.0
dtoutput=0.05
nstepmax=5
nprtLine=1
dump_prefix=out
/

&MESH
nx=10
ny=3
/

&HYDRO
courant_factor=0.8
niter_riemann=10
/
