This namelist contains various input parameters for HYDRO runs

&RUN
tend=0.25
noutput=1
nstepmax=10
nprtLine=100
dump_prefix=sod
init_file=../input/sod.dmp
/

&HYDRO
courant_factor=0.9
niter_riemann=10
scheme=collela
/
